
##########################################################################
#               Crystallographic Information Format file
#               Produced by PyCifRW module
#
#  This is a CIF file.  CIF has been adopted by the International
#  Union of Crystallography as the standard for data archiving and
#  transmission.
#
#  For information on this file format, follow the CIF links at
#  http://www.iucr.org
##########################################################################

data_image0

_cell_length_a                          26.86
_cell_length_b                          26.86
_cell_length_c                          37.753
_cell_angle_alpha                       90.0
_cell_angle_beta                        90.0
_cell_angle_gamma                       90.0
_symmetry_int_tables_number             1
loop_
  _symmetry_equiv_pos_as_xyz
         'x, y, z' 
loop_
  _atom_site_label
  _atom_site_fract_x
  _atom_site_fract_y
  _atom_site_fract_z
  _atom_site_type_symbol
         Cu        0.04746   0.70528   0.5       Cu        
         Cu        0.95254   0.29472   0.5       Cu        
         Cu        0.29472   0.04746   0.5       Cu        
         Cu        0.70528   0.95254   0.5       Cu        
         Cu        0.54746   0.20528   0.0       Cu        
         Cu        0.45254   0.79472   0.0       Cu        
         Cu        0.79472   0.54746   0.0       Cu        
         Cu        0.20528   0.45254   0.0       Cu        
         Cu        0.06207   0.60834   0.5       Cu        
         Cu        0.93793   0.39166   0.5       Cu        
         Cu        0.39166   0.06207   0.5       Cu        
         Cu        0.60834   0.93793   0.5       Cu        
         Cu        0.56207   0.10834   0.0       Cu        
         Cu        0.43793   0.89166   0.0       Cu        
         Cu        0.89166   0.56207   0.0       Cu        
         Cu        0.10834   0.43793   0.0       Cu        
         Cu        0.17267   0.87737   0.35422   Cu        
         Cu        0.82733   0.12263   0.35422   Cu        
         Cu        0.12263   0.17267   0.35422   Cu        
         Cu        0.87737   0.82733   0.35422   Cu        
         Cu        0.67267   0.37737   0.85422   Cu        
         Cu        0.32733   0.62263   0.85422   Cu        
         Cu        0.62263   0.67267   0.85422   Cu        
         Cu        0.37737   0.32733   0.85422   Cu        
         Cu        0.82733   0.12263   0.64578   Cu        
         Cu        0.17267   0.87737   0.64578   Cu        
         Cu        0.87737   0.82733   0.64578   Cu        
         Cu        0.12263   0.17267   0.64578   Cu        
         Cu        0.32733   0.62263   0.14578   Cu        
         Cu        0.67267   0.37737   0.14578   Cu        
         Cu        0.37737   0.32733   0.14578   Cu        
         Cu        0.62263   0.67267   0.14578   Cu        
         Cu        0.22786   0.83736   0.3039    Cu        
         Cu        0.77214   0.16264   0.3039    Cu        
         Cu        0.16264   0.22786   0.3039    Cu        
         Cu        0.83736   0.77214   0.3039    Cu        
         Cu        0.72786   0.33736   0.8039    Cu        
         Cu        0.27214   0.66264   0.8039    Cu        
         Cu        0.66264   0.72786   0.8039    Cu        
         Cu        0.33736   0.27214   0.8039    Cu        
         Cu        0.77214   0.16264   0.6961    Cu        
         Cu        0.22786   0.83736   0.6961    Cu        
         Cu        0.83736   0.77214   0.6961    Cu        
         Cu        0.16264   0.22786   0.6961    Cu        
         Cu        0.27214   0.66264   0.1961    Cu        
         Cu        0.72786   0.33736   0.1961    Cu        
         Cu        0.33736   0.27214   0.1961    Cu        
         Cu        0.66264   0.72786   0.1961    Cu        
         O         0.11047   0.62203   0.46304   O         
         O         0.88953   0.37797   0.46304   O         
         O         0.37797   0.11047   0.46304   O         
         O         0.62203   0.88953   0.46304   O         
         O         0.61047   0.12203   0.96304   O         
         O         0.38953   0.87797   0.96304   O         
         O         0.87797   0.61047   0.96304   O         
         O         0.12203   0.38953   0.96304   O         
         O         0.88953   0.37797   0.53696   O         
         O         0.11047   0.62203   0.53696   O         
         O         0.62203   0.88953   0.53696   O         
         O         0.37797   0.11047   0.53696   O         
         O         0.38953   0.87797   0.03696   O         
         O         0.61047   0.12203   0.03696   O         
         O         0.12203   0.38953   0.03696   O         
         O         0.87797   0.61047   0.03696   O         
         O         0.09801   0.70448   0.46334   O         
         O         0.90199   0.29552   0.46334   O         
         O         0.29552   0.09801   0.46334   O         
         O         0.70448   0.90199   0.46334   O         
         O         0.59801   0.20448   0.96334   O         
         O         0.40199   0.79552   0.96334   O         
         O         0.79552   0.59801   0.96334   O         
         O         0.20448   0.40199   0.96334   O         
         O         0.90199   0.29552   0.53666   O         
         O         0.09801   0.70448   0.53666   O         
         O         0.70448   0.90199   0.53666   O         
         O         0.29552   0.09801   0.53666   O         
         O         0.40199   0.79552   0.03666   O         
         O         0.59801   0.20448   0.03666   O         
         O         0.20448   0.40199   0.03666   O         
         O         0.79552   0.59801   0.03666   O         
         O         0.17739   0.81124   0.37594   O         
         O         0.82261   0.18876   0.37594   O         
         O         0.18876   0.17739   0.37594   O         
         O         0.81124   0.82261   0.37594   O         
         O         0.67739   0.31124   0.87594   O         
         O         0.32261   0.68876   0.87594   O         
         O         0.68876   0.67739   0.87594   O         
         O         0.31124   0.32261   0.87594   O         
         O         0.82261   0.18876   0.62406   O         
         O         0.17739   0.81124   0.62406   O         
         O         0.81124   0.82261   0.62406   O         
         O         0.18876   0.17739   0.62406   O         
         O         0.32261   0.68876   0.12406   O         
         O         0.67739   0.31124   0.12406   O         
         O         0.31124   0.32261   0.12406   O         
         O         0.68876   0.67739   0.12406   O         
         O         0.21888   0.77657   0.3309    O         
         O         0.78112   0.22343   0.3309    O         
         O         0.22343   0.21888   0.3309    O         
         O         0.77657   0.78112   0.3309    O         
         O         0.71888   0.27657   0.8309    O         
         O         0.28112   0.72343   0.8309    O         
         O         0.72343   0.71888   0.8309    O         
         O         0.27657   0.28112   0.8309    O         
         O         0.78112   0.22343   0.6691    O         
         O         0.21888   0.77657   0.6691    O         
         O         0.77657   0.78112   0.6691    O         
         O         0.22343   0.21888   0.6691    O         
         O         0.28112   0.72343   0.1691    O         
         O         0.71888   0.27657   0.1691    O         
         O         0.27657   0.28112   0.1691    O         
         O         0.72343   0.71888   0.1691    O         
         O         0.27044   0.59561   0.2162    O         
         O         0.72956   0.40439   0.2162    O         
         O         0.40439   0.27044   0.2162    O         
         O         0.59561   0.72956   0.2162    O         
         O         0.77044   0.09561   0.7162    O         
         O         0.22956   0.90439   0.7162    O         
         O         0.90439   0.77044   0.7162    O         
         O         0.09561   0.22956   0.7162    O         
         O         0.72956   0.40439   0.7838    O         
         O         0.27044   0.59561   0.7838    O         
         O         0.59561   0.72956   0.7838    O         
         O         0.40439   0.27044   0.7838    O         
         O         0.22956   0.90439   0.2838    O         
         O         0.77044   0.09561   0.2838    O         
         O         0.09561   0.22956   0.2838    O         
         O         0.90439   0.77044   0.2838    O         
         O         0.32403   0.56455   0.17643   O         
         O         0.67597   0.43545   0.17643   O         
         O         0.43545   0.32403   0.17643   O         
         O         0.56455   0.67597   0.17643   O         
         O         0.82403   0.06455   0.67643   O         
         O         0.17597   0.93545   0.67643   O         
         O         0.93545   0.82403   0.67643   O         
         O         0.06455   0.17597   0.67643   O         
         O         0.67597   0.43545   0.82357   O         
         O         0.32403   0.56455   0.82357   O         
         O         0.56455   0.67597   0.82357   O         
         O         0.43545   0.32403   0.82357   O         
         O         0.17597   0.93545   0.32357   O         
         O         0.82403   0.06455   0.32357   O         
         O         0.06455   0.17597   0.32357   O         
         O         0.93545   0.82403   0.32357   O         
         O         0.35334   0.38519   0.17199   O         
         O         0.64666   0.61481   0.17199   O         
         O         0.61481   0.35334   0.17199   O         
         O         0.38519   0.64666   0.17199   O         
         O         0.85334   0.88519   0.67199   O         
         O         0.14666   0.11481   0.67199   O         
         O         0.11481   0.85334   0.67199   O         
         O         0.88519   0.14666   0.67199   O         
         O         0.64666   0.61481   0.82801   O         
         O         0.35334   0.38519   0.82801   O         
         O         0.38519   0.64666   0.82801   O         
         O         0.61481   0.35334   0.82801   O         
         O         0.14666   0.11481   0.32801   O         
         O         0.85334   0.88519   0.32801   O         
         O         0.88519   0.14666   0.32801   O         
         O         0.11481   0.85334   0.32801   O         
         O         0.32649   0.33741   0.2171    O         
         O         0.67351   0.66259   0.2171    O         
         O         0.66259   0.32649   0.2171    O         
         O         0.33741   0.67351   0.2171    O         
         O         0.82649   0.83741   0.7171    O         
         O         0.17351   0.16259   0.7171    O         
         O         0.16259   0.82649   0.7171    O         
         O         0.83741   0.17351   0.7171    O         
         O         0.67351   0.66259   0.7829    O         
         O         0.32649   0.33741   0.7829    O         
         O         0.33741   0.67351   0.7829    O         
         O         0.66259   0.32649   0.7829    O         
         O         0.17351   0.16259   0.2829    O         
         O         0.82649   0.83741   0.2829    O         
         O         0.83741   0.17351   0.2829    O         
         O         0.16259   0.82649   0.2829    O         
         O         0.14566   0.28556   0.33326   O         
         O         0.85434   0.71444   0.33326   O         
         O         0.71444   0.14566   0.33326   O         
         O         0.28556   0.85434   0.33326   O         
         O         0.64566   0.78556   0.83326   O         
         O         0.35434   0.21444   0.83326   O         
         O         0.21444   0.64566   0.83326   O         
         O         0.78556   0.35434   0.83326   O         
         O         0.85434   0.71444   0.66674   O         
         O         0.14566   0.28556   0.66674   O         
         O         0.28556   0.85434   0.66674   O         
         O         0.71444   0.14566   0.66674   O         
         O         0.35434   0.21444   0.16674   O         
         O         0.64566   0.78556   0.16674   O         
         O         0.78556   0.35434   0.16674   O         
         O         0.21444   0.64566   0.16674   O         
         O         0.10519   0.2378    0.37266   O         
         O         0.89481   0.7622    0.37266   O         
         O         0.7622    0.10519   0.37266   O         
         O         0.2378    0.89481   0.37266   O         
         O         0.60519   0.7378    0.87266   O         
         O         0.39481   0.2622    0.87266   O         
         O         0.2622    0.60519   0.87266   O         
         O         0.7378    0.39481   0.87266   O         
         O         0.89481   0.7622    0.62734   O         
         O         0.10519   0.2378    0.62734   O         
         O         0.2378    0.89481   0.62734   O         
         O         0.7622    0.10519   0.62734   O         
         O         0.39481   0.2622    0.12734   O         
         O         0.60519   0.7378    0.12734   O         
         O         0.7378    0.39481   0.12734   O         
         O         0.2622    0.60519   0.12734   O         
         O         0.00204   0.30975   0.46366   O         
         O         0.99796   0.69025   0.46366   O         
         O         0.69025   0.00204   0.46366   O         
         O         0.30975   0.99796   0.46366   O         
         O         0.50204   0.80975   0.96366   O         
         O         0.49796   0.19025   0.96366   O         
         O         0.19025   0.50204   0.96366   O         
         O         0.80975   0.49796   0.96366   O         
         O         0.99796   0.69025   0.53634   O         
         O         0.00204   0.30975   0.53634   O         
         O         0.30975   0.99796   0.53634   O         
         O         0.69025   0.00204   0.53634   O         
         O         0.49796   0.19025   0.03634   O         
         O         0.50204   0.80975   0.03634   O         
         O         0.80975   0.49796   0.03634   O         
         O         0.19025   0.50204   0.03634   O         
         O         0.98971   0.39201   0.46406   O         
         O         0.01029   0.60799   0.46406   O         
         O         0.60799   0.98971   0.46406   O         
         O         0.39201   0.01029   0.46406   O         
         O         0.48971   0.89201   0.96406   O         
         O         0.51029   0.10799   0.96406   O         
         O         0.10799   0.48971   0.96406   O         
         O         0.89201   0.51029   0.96406   O         
         O         0.01029   0.60799   0.53594   O         
         O         0.98971   0.39201   0.53594   O         
         O         0.39201   0.01029   0.53594   O         
         O         0.60799   0.98971   0.53594   O         
         O         0.51029   0.10799   0.03594   O         
         O         0.48971   0.89201   0.03594   O         
         O         0.89201   0.51029   0.03594   O         
         O         0.10799   0.48971   0.03594   O         
         O         0.0358    0.7839    0.5       O         
         O         0.9642    0.2161    0.5       O         
         O         0.2161    0.0358    0.5       O         
         O         0.7839    0.9642    0.5       O         
         O         0.5358    0.2839    0.0       O         
         O         0.4642    0.7161    0.0       O         
         O         0.7161    0.5358    0.0       O         
         O         0.2839    0.4642    0.0       O         
         O         0.0695    0.52944   0.5       O         
         O         0.9305    0.47056   0.5       O         
         O         0.47056   0.0695    0.5       O         
         O         0.52944   0.9305    0.5       O         
         O         0.5695    0.02944   0.0       O         
         O         0.4305    0.97056   0.0       O         
         O         0.97056   0.5695    0.0       O         
         O         0.02944   0.4305    0.0       O         
         O         0.1316    0.9103    0.39738   O         
         O         0.8684    0.0897    0.39738   O         
         O         0.0897    0.1316    0.39738   O         
         O         0.9103    0.8684    0.39738   O         
         O         0.6316    0.4103    0.89738   O         
         O         0.3684    0.5897    0.89738   O         
         O         0.5897    0.6316    0.89738   O         
         O         0.4103    0.3684    0.89738   O         
         O         0.8684    0.0897    0.60262   O         
         O         0.1316    0.9103    0.60262   O         
         O         0.9103    0.8684    0.60262   O         
         O         0.0897    0.1316    0.60262   O         
         O         0.3684    0.5897    0.10262   O         
         O         0.6316    0.4103    0.10262   O         
         O         0.4103    0.3684    0.10262   O         
         O         0.5897    0.6316    0.10262   O         
         O         0.26345   0.801     0.25852   O         
         O         0.73655   0.199     0.25852   O         
         O         0.199     0.26345   0.25852   O         
         O         0.801     0.73655   0.25852   O         
         O         0.76345   0.301     0.75852   O         
         O         0.23655   0.699     0.75852   O         
         O         0.699     0.76345   0.75852   O         
         O         0.301     0.23655   0.75852   O         
         O         0.73655   0.199     0.74148   O         
         O         0.26345   0.801     0.74148   O         
         O         0.801     0.73655   0.74148   O         
         O         0.199     0.26345   0.74148   O         
         O         0.23655   0.699     0.24148   O         
         O         0.76345   0.301     0.24148   O         
         O         0.301     0.23655   0.24148   O         
         O         0.699     0.76345   0.24148   O         
         N         0.1675    0.52887   0.37044   N         
         N         0.8325    0.47113   0.37044   N         
         N         0.47113   0.1675    0.37044   N         
         N         0.52887   0.8325    0.37044   N         
         N         0.6675    0.02887   0.87044   N         
         N         0.3325    0.97113   0.87044   N         
         N         0.97113   0.6675    0.87044   N         
         N         0.02887   0.3325    0.87044   N         
         N         0.8325    0.47113   0.62956   N         
         N         0.1675    0.52887   0.62956   N         
         N         0.52887   0.8325    0.62956   N         
         N         0.47113   0.1675    0.62956   N         
         N         0.3325    0.97113   0.12956   N         
         N         0.6675    0.02887   0.12956   N         
         N         0.02887   0.3325    0.12956   N         
         N         0.97113   0.6675    0.12956   N         
         N         0.2241    0.52249   0.32226   N         
         N         0.7759    0.47751   0.32226   N         
         N         0.47751   0.2241    0.32226   N         
         N         0.52249   0.7759    0.32226   N         
         N         0.7241    0.02249   0.82226   N         
         N         0.2759    0.97751   0.82226   N         
         N         0.97751   0.7241    0.82226   N         
         N         0.02249   0.2759    0.82226   N         
         N         0.7759    0.47751   0.67774   N         
         N         0.2241    0.52249   0.67774   N         
         N         0.52249   0.7759    0.67774   N         
         N         0.47751   0.2241    0.67774   N         
         N         0.2759    0.97751   0.17774   N         
         N         0.7241    0.02249   0.17774   N         
         N         0.02249   0.2759    0.17774   N         
         N         0.97751   0.7241    0.17774   N         
         N         0.1777    0.45146   0.34148   N         
         N         0.8223    0.54854   0.34148   N         
         N         0.54854   0.1777    0.34148   N         
         N         0.45146   0.8223    0.34148   N         
         N         0.6777    0.95146   0.84148   N         
         N         0.3223    0.04854   0.84148   N         
         N         0.04854   0.6777    0.84148   N         
         N         0.95146   0.3223    0.84148   N         
         N         0.8223    0.54854   0.65852   N         
         N         0.1777    0.45146   0.65852   N         
         N         0.45146   0.8223    0.65852   N         
         N         0.54854   0.1777    0.65852   N         
         N         0.3223    0.04854   0.15852   N         
         N         0.6777    0.95146   0.15852   N         
         N         0.95146   0.3223    0.15852   N         
         N         0.04854   0.6777    0.15852   N         
         N         0.2142    0.59577   0.34975   N         
         N         0.7858    0.40423   0.34975   N         
         N         0.40423   0.2142    0.34975   N         
         N         0.59577   0.7858    0.34975   N         
         N         0.7142    0.09577   0.84975   N         
         N         0.2858    0.90423   0.84975   N         
         N         0.90423   0.7142    0.84975   N         
         N         0.09577   0.2858    0.84975   N         
         N         0.7858    0.40423   0.65025   N         
         N         0.2142    0.59577   0.65025   N         
         N         0.59577   0.7858    0.65025   N         
         N         0.40423   0.2142    0.65025   N         
         N         0.2858    0.90423   0.15025   N         
         N         0.7142    0.09577   0.15025   N         
         N         0.09577   0.2858    0.15025   N         
         N         0.90423   0.7142    0.15025   N         
         H         0.2389    0.6039    0.3364    H         
         H         0.7611    0.3961    0.3364    H         
         H         0.3961    0.2389    0.3364    H         
         H         0.6039    0.7611    0.3364    H         
         H         0.7389    0.1039    0.8364    H         
         H         0.2611    0.8961    0.8364    H         
         H         0.8961    0.7389    0.8364    H         
         H         0.1039    0.2611    0.8364    H         
         H         0.7611    0.3961    0.6636    H         
         H         0.2389    0.6039    0.6636    H         
         H         0.6039    0.7611    0.6636    H         
         H         0.3961    0.2389    0.6636    H         
         H         0.2611    0.8961    0.1636    H         
         H         0.7389    0.1039    0.1636    H         
         H         0.1039    0.2611    0.1636    H         
         H         0.8961    0.7389    0.1636    H         
         N         0.2305    0.4455    0.29523   N         
         N         0.7695    0.5545    0.29523   N         
         N         0.5545    0.2305    0.29523   N         
         N         0.4455    0.7695    0.29523   N         
         N         0.7305    0.9455    0.79523   N         
         N         0.2695    0.0545    0.79523   N         
         N         0.0545    0.7305    0.79523   N         
         N         0.9455    0.2695    0.79523   N         
         N         0.7695    0.5545    0.70477   N         
         N         0.2305    0.4455    0.70477   N         
         N         0.4455    0.7695    0.70477   N         
         N         0.5545    0.2305    0.70477   N         
         N         0.2695    0.0545    0.20477   N         
         N         0.7305    0.9455    0.20477   N         
         N         0.9455    0.2695    0.20477   N         
         N         0.0545    0.7305    0.20477   N         
         H         0.2232    0.4145    0.2974    H         
         H         0.7768    0.5855    0.2974    H         
         H         0.5855    0.2232    0.2974    H         
         H         0.4145    0.7768    0.2974    H         
         H         0.7232    0.9145    0.7974    H         
         H         0.2768    0.0855    0.7974    H         
         H         0.0855    0.7232    0.7974    H         
         H         0.9145    0.2768    0.7974    H         
         H         0.7768    0.5855    0.7026    H         
         H         0.2232    0.4145    0.7026    H         
         H         0.4145    0.7768    0.7026    H         
         H         0.5855    0.2232    0.7026    H         
         H         0.2768    0.0855    0.2026    H         
         H         0.7232    0.9145    0.2026    H         
         H         0.9145    0.2768    0.2026    H         
         H         0.0855    0.7232    0.2026    H         
         N         0.1231    0.46166   0.38805   N         
         N         0.8769    0.53834   0.38805   N         
         N         0.53834   0.1231    0.38805   N         
         N         0.46166   0.8769    0.38805   N         
         N         0.6231    0.96166   0.88805   N         
         N         0.3769    0.03834   0.88805   N         
         N         0.03834   0.6231    0.88805   N         
         N         0.96166   0.3769    0.88805   N         
         N         0.8769    0.53834   0.61195   N         
         N         0.1231    0.46166   0.61195   N         
         N         0.46166   0.8769    0.61195   N         
         N         0.53834   0.1231    0.61195   N         
         N         0.3769    0.03834   0.11195   N         
         N         0.6231    0.96166   0.11195   N         
         N         0.96166   0.3769    0.11195   N         
         N         0.03834   0.6231    0.11195   N         
         H         0.1101    0.4829    0.4023    H         
         H         0.8899    0.5171    0.4023    H         
         H         0.5171    0.1101    0.4023    H         
         H         0.4829    0.8899    0.4023    H         
         H         0.6101    0.9829    0.9023    H         
         H         0.3899    0.0171    0.9023    H         
         H         0.0171    0.6101    0.9023    H         
         H         0.9829    0.3899    0.9023    H         
         H         0.8899    0.5171    0.5977    H         
         H         0.1101    0.4829    0.5977    H         
         H         0.4829    0.8899    0.5977    H         
         H         0.5171    0.1101    0.5977    H         
         H         0.3899    0.0171    0.0977    H         
         H         0.6101    0.9829    0.0977    H         
         H         0.9829    0.3899    0.0977    H         
         H         0.0171    0.6101    0.0977    H         
         C         0.201     0.5474    0.348     C         
         C         0.799     0.4526    0.348     C         
         C         0.4526    0.201     0.348     C         
         C         0.5474    0.799     0.348     C         
         C         0.701     0.0474    0.848     C         
         C         0.299     0.9526    0.848     C         
         C         0.9526    0.701     0.848     C         
         C         0.0474    0.299     0.848     C         
         C         0.799     0.4526    0.652     C         
         C         0.201     0.5474    0.652     C         
         C         0.5474    0.799     0.652     C         
         C         0.4526    0.201     0.652     C         
         C         0.299     0.9526    0.152     C         
         C         0.701     0.0474    0.152     C         
         C         0.0474    0.299     0.152     C         
         C         0.9526    0.701     0.152     C         
         C         0.2115    0.4753    0.32044   C         
         C         0.7885    0.5247    0.32044   C         
         C         0.5247    0.2115    0.32044   C         
         C         0.4753    0.7885    0.32044   C         
         C         0.7115    0.9753    0.82044   C         
         C         0.2885    0.0247    0.82044   C         
         C         0.0247    0.7115    0.82044   C         
         C         0.9753    0.2885    0.82044   C         
         C         0.7885    0.5247    0.67956   C         
         C         0.2115    0.4753    0.67956   C         
         C         0.4753    0.7885    0.67956   C         
         C         0.5247    0.2115    0.67956   C         
         C         0.2885    0.0247    0.17956   C         
         C         0.7115    0.9753    0.17956   C         
         C         0.9753    0.2885    0.17956   C         
         C         0.0247    0.7115    0.17956   C         
         C         0.1576    0.4811    0.36556   C         
         C         0.8424    0.5189    0.36556   C         
         C         0.5189    0.1576    0.36556   C         
         C         0.4811    0.8424    0.36556   C         
         C         0.6576    0.9811    0.86556   C         
         C         0.3424    0.0189    0.86556   C         
         C         0.0189    0.6576    0.86556   C         
         C         0.9811    0.3424    0.86556   C         
         C         0.8424    0.5189    0.63444   C         
         C         0.1576    0.4811    0.63444   C         
         C         0.4811    0.8424    0.63444   C         
         C         0.5189    0.1576    0.63444   C         
         C         0.3424    0.0189    0.13444   C         
         C         0.6576    0.9811    0.13444   C         
         C         0.9811    0.3424    0.13444   C         
         C         0.0189    0.6576    0.13444   C         
         C         0.1943    0.63538   0.36991   C         
         C         0.8057    0.36462   0.36991   C         
         C         0.36462   0.1943    0.36991   C         
         C         0.63538   0.8057    0.36991   C         
         C         0.6943    0.13538   0.86991   C         
         C         0.3057    0.86462   0.86991   C         
         C         0.86462   0.6943    0.86991   C         
         C         0.13538   0.3057    0.86991   C         
         C         0.8057    0.36462   0.63009   C         
         C         0.1943    0.63538   0.63009   C         
         C         0.63538   0.8057    0.63009   C         
         C         0.36462   0.1943    0.63009   C         
         C         0.3057    0.86462   0.13009   C         
         C         0.6943    0.13538   0.13009   C         
         C         0.13538   0.3057    0.13009   C         
         C         0.86462   0.6943    0.13009   C         
         C         0.1672    0.62949   0.40107   C         
         C         0.8328    0.37051   0.40107   C         
         C         0.37051   0.1672    0.40107   C         
         C         0.62949   0.8328    0.40107   C         
         C         0.6672    0.12949   0.90107   C         
         C         0.3328    0.87051   0.90107   C         
         C         0.87051   0.6672    0.90107   C         
         C         0.12949   0.3328    0.90107   C         
         C         0.8328    0.37051   0.59893   C         
         C         0.1672    0.62949   0.59893   C         
         C         0.62949   0.8328    0.59893   C         
         C         0.37051   0.1672    0.59893   C         
         C         0.3328    0.87051   0.09893   C         
         C         0.6672    0.12949   0.09893   C         
         C         0.12949   0.3328    0.09893   C         
         C         0.87051   0.6672    0.09893   C         
         H         0.1608    0.5978    0.4099    H         
         H         0.8392    0.4022    0.4099    H         
         H         0.4022    0.1608    0.4099    H         
         H         0.5978    0.8392    0.4099    H         
         H         0.6608    0.0978    0.9099    H         
         H         0.3392    0.9022    0.9099    H         
         H         0.9022    0.6608    0.9099    H         
         H         0.0978    0.3392    0.9099    H         
         H         0.8392    0.4022    0.5901    H         
         H         0.1608    0.5978    0.5901    H         
         H         0.5978    0.8392    0.5901    H         
         H         0.4022    0.1608    0.5901    H         
         H         0.3392    0.9022    0.0901    H         
         H         0.6608    0.0978    0.0901    H         
         H         0.0978    0.3392    0.0901    H         
         H         0.9022    0.6608    0.0901    H         
         C         0.14979   0.67107   0.41887   C         
         C         0.85021   0.32893   0.41887   C         
         C         0.32893   0.14979   0.41887   C         
         C         0.67107   0.85021   0.41887   C         
         C         0.64979   0.17107   0.91887   C         
         C         0.35021   0.82893   0.91887   C         
         C         0.82893   0.64979   0.91887   C         
         C         0.17107   0.35021   0.91887   C         
         C         0.85021   0.32893   0.58113   C         
         C         0.14979   0.67107   0.58113   C         
         C         0.67107   0.85021   0.58113   C         
         C         0.32893   0.14979   0.58113   C         
         C         0.35021   0.82893   0.08113   C         
         C         0.64979   0.17107   0.08113   C         
         C         0.17107   0.35021   0.08113   C         
         C         0.82893   0.64979   0.08113   C         
         C         0.15976   0.71875   0.40619   C         
         C         0.84024   0.28125   0.40619   C         
         C         0.28125   0.15976   0.40619   C         
         C         0.71875   0.84024   0.40619   C         
         C         0.65976   0.21875   0.90619   C         
         C         0.34024   0.78125   0.90619   C         
         C         0.78125   0.65976   0.90619   C         
         C         0.21875   0.34024   0.90619   C         
         C         0.84024   0.28125   0.59381   C         
         C         0.15976   0.71875   0.59381   C         
         C         0.71875   0.84024   0.59381   C         
         C         0.28125   0.15976   0.59381   C         
         C         0.34024   0.78125   0.09381   C         
         C         0.65976   0.21875   0.09381   C         
         C         0.21875   0.34024   0.09381   C         
         C         0.78125   0.65976   0.09381   C         
         H         0.1481    0.7466    0.4183    H         
         H         0.8519    0.2534    0.4183    H         
         H         0.2534    0.1481    0.4183    H         
         H         0.7466    0.8519    0.4183    H         
         H         0.6481    0.2466    0.9183    H         
         H         0.3519    0.7534    0.9183    H         
         H         0.7534    0.6481    0.9183    H         
         H         0.2466    0.3519    0.9183    H         
         H         0.8519    0.2534    0.5817    H         
         H         0.1481    0.7466    0.5817    H         
         H         0.7466    0.8519    0.5817    H         
         H         0.2534    0.1481    0.5817    H         
         H         0.3519    0.7534    0.0817    H         
         H         0.6481    0.2466    0.0817    H         
         H         0.2466    0.3519    0.0817    H         
         H         0.7534    0.6481    0.0817    H         
         C         0.18717   0.72427   0.37542   C         
         C         0.81283   0.27573   0.37542   C         
         C         0.27573   0.18717   0.37542   C         
         C         0.72427   0.81283   0.37542   C         
         C         0.68717   0.22427   0.87542   C         
         C         0.31283   0.77573   0.87542   C         
         C         0.77573   0.68717   0.87542   C         
         C         0.22427   0.31283   0.87542   C         
         C         0.81283   0.27573   0.62458   C         
         C         0.18717   0.72427   0.62458   C         
         C         0.72427   0.81283   0.62458   C         
         C         0.27573   0.18717   0.62458   C         
         C         0.31283   0.77573   0.12458   C         
         C         0.68717   0.22427   0.12458   C         
         C         0.22427   0.31283   0.12458   C         
         C         0.77573   0.68717   0.12458   C         
         C         0.2048    0.68279   0.35762   C         
         C         0.7952    0.31721   0.35762   C         
         C         0.31721   0.2048    0.35762   C         
         C         0.68279   0.7952    0.35762   C         
         C         0.7048    0.18279   0.85762   C         
         C         0.2952    0.81721   0.85762   C         
         C         0.81721   0.7048    0.85762   C         
         C         0.18279   0.2952    0.85762   C         
         C         0.7952    0.31721   0.64238   C         
         C         0.2048    0.68279   0.64238   C         
         C         0.68279   0.7952    0.64238   C         
         C         0.31721   0.2048    0.64238   C         
         C         0.2952    0.81721   0.14238   C         
         C         0.7048    0.18279   0.14238   C         
         C         0.18279   0.2952    0.14238   C         
         C         0.81721   0.7048    0.14238   C         
         H         0.2238    0.6868    0.3372    H         
         H         0.7762    0.3132    0.3372    H         
         H         0.3132    0.2238    0.3372    H         
         H         0.6868    0.7762    0.3372    H         
         H         0.7238    0.1868    0.8372    H         
         H         0.2762    0.8132    0.8372    H         
         H         0.8132    0.7238    0.8372    H         
         H         0.1868    0.2762    0.8372    H         
         H         0.7762    0.3132    0.6628    H         
         H         0.2238    0.6868    0.6628    H         
         H         0.6868    0.7762    0.6628    H         
         H         0.3132    0.2238    0.6628    H         
         H         0.2762    0.8132    0.1628    H         
         H         0.7238    0.1868    0.1628    H         
         H         0.1868    0.2762    0.1628    H         
         H         0.8132    0.7238    0.1628    H         
         C         0.11743   0.66517   0.45122   C         
         C         0.88257   0.33483   0.45122   C         
         C         0.33483   0.11743   0.45122   C         
         C         0.66517   0.88257   0.45122   C         
         C         0.61743   0.16517   0.95122   C         
         C         0.38257   0.83483   0.95122   C         
         C         0.83483   0.61743   0.95122   C         
         C         0.16517   0.38257   0.95122   C         
         C         0.88257   0.33483   0.54878   C         
         C         0.11743   0.66517   0.54878   C         
         C         0.66517   0.88257   0.54878   C         
         C         0.33483   0.11743   0.54878   C         
         C         0.38257   0.83483   0.04878   C         
         C         0.61743   0.16517   0.04878   C         
         C         0.16517   0.38257   0.04878   C         
         C         0.83483   0.61743   0.04878   C         
         C         0.19544   0.7743    0.35994   C         
         C         0.80456   0.2257    0.35994   C         
         C         0.2257    0.19544   0.35994   C         
         C         0.7743    0.80456   0.35994   C         
         C         0.69544   0.2743    0.85994   C         
         C         0.30456   0.7257    0.85994   C         
         C         0.7257    0.69544   0.85994   C         
         C         0.2743    0.30456   0.85994   C         
         C         0.80456   0.2257    0.64006   C         
         C         0.19544   0.7743    0.64006   C         
         C         0.7743    0.80456   0.64006   C         
         C         0.2257    0.19544   0.64006   C         
         C         0.30456   0.7257    0.14006   C         
         C         0.69544   0.2743    0.14006   C         
         C         0.2743    0.30456   0.14006   C         
         C         0.7257    0.69544   0.14006   C         
         C         0.2605    0.4571    0.26589   C         
         C         0.7395    0.5429    0.26589   C         
         C         0.5429    0.2605    0.26589   C         
         C         0.4571    0.7395    0.26589   C         
         C         0.7605    0.9571    0.76589   C         
         C         0.2395    0.0429    0.76589   C         
         C         0.0429    0.7605    0.76589   C         
         C         0.9571    0.2395    0.76589   C         
         C         0.7395    0.5429    0.73411   C         
         C         0.2605    0.4571    0.73411   C         
         C         0.4571    0.7395    0.73411   C         
         C         0.5429    0.2605    0.73411   C         
         C         0.2395    0.0429    0.23411   C         
         C         0.7605    0.9571    0.23411   C         
         C         0.9571    0.2395    0.23411   C         
         C         0.0429    0.7605    0.23411   C         
         C         0.2654    0.50421   0.2515    C         
         C         0.7346    0.49579   0.2515    C         
         C         0.49579   0.2654    0.2515    C         
         C         0.50421   0.7346    0.2515    C         
         C         0.7654    0.00421   0.7515    C         
         C         0.2346    0.99579   0.7515    C         
         C         0.99579   0.7654    0.7515    C         
         C         0.00421   0.2346    0.7515    C         
         C         0.7346    0.49579   0.7485    C         
         C         0.2654    0.50421   0.7485    C         
         C         0.50421   0.7346    0.7485    C         
         C         0.49579   0.2654    0.7485    C         
         C         0.2346    0.99579   0.2485    C         
         C         0.7654    0.00421   0.2485    C         
         C         0.00421   0.2346    0.2485    C         
         C         0.99579   0.7654    0.2485    C         
         H         0.2502    0.5313    0.2623    H         
         H         0.7498    0.4687    0.2623    H         
         H         0.4687    0.2502    0.2623    H         
         H         0.5313    0.7498    0.2623    H         
         H         0.7502    0.0313    0.7623    H         
         H         0.2498    0.9687    0.7623    H         
         H         0.9687    0.7502    0.7623    H         
         H         0.0313    0.2498    0.7623    H         
         H         0.7498    0.4687    0.7377    H         
         H         0.2502    0.5313    0.7377    H         
         H         0.5313    0.7498    0.7377    H         
         H         0.4687    0.2502    0.7377    H         
         H         0.2498    0.9687    0.2377    H         
         H         0.7502    0.0313    0.2377    H         
         H         0.0313    0.2498    0.2377    H         
         H         0.9687    0.7502    0.2377    H         
         C         0.29342   0.51084   0.22043   C         
         C         0.70658   0.48916   0.22043   C         
         C         0.48916   0.29342   0.22043   C         
         C         0.51084   0.70658   0.22043   C         
         C         0.79342   0.01084   0.72043   C         
         C         0.20658   0.98916   0.72043   C         
         C         0.98916   0.79342   0.72043   C         
         C         0.01084   0.20658   0.72043   C         
         C         0.70658   0.48916   0.77957   C         
         C         0.29342   0.51084   0.77957   C         
         C         0.51084   0.70658   0.77957   C         
         C         0.48916   0.29342   0.77957   C         
         C         0.20658   0.98916   0.27957   C         
         C         0.79342   0.01084   0.27957   C         
         C         0.01084   0.20658   0.27957   C         
         C         0.98916   0.79342   0.27957   C         
         C         0.31607   0.47022   0.205     C         
         C         0.68393   0.52978   0.205     C         
         C         0.52978   0.31607   0.205     C         
         C         0.47022   0.68393   0.205     C         
         C         0.81607   0.97022   0.705     C         
         C         0.18393   0.02978   0.705     C         
         C         0.02978   0.81607   0.705     C         
         C         0.97022   0.18393   0.705     C         
         C         0.68393   0.52978   0.795     C         
         C         0.31607   0.47022   0.795     C         
         C         0.47022   0.68393   0.795     C         
         C         0.52978   0.31607   0.795     C         
         C         0.18393   0.02978   0.295     C         
         C         0.81607   0.97022   0.295     C         
         C         0.97022   0.18393   0.295     C         
         C         0.02978   0.81607   0.295     C         
         H         0.335     0.4745    0.1846    H         
         H         0.665     0.5255    0.1846    H         
         H         0.5255    0.335     0.1846    H         
         H         0.4745    0.665     0.1846    H         
         H         0.835     0.9745    0.6846    H         
         H         0.165     0.0255    0.6846    H         
         H         0.0255    0.835     0.6846    H         
         H         0.9745    0.165     0.6846    H         
         H         0.665     0.5255    0.8154    H         
         H         0.335     0.4745    0.8154    H         
         H         0.4745    0.665     0.8154    H         
         H         0.5255    0.335     0.8154    H         
         H         0.165     0.0255    0.3154    H         
         H         0.835     0.9745    0.3154    H         
         H         0.9745    0.165     0.3154    H         
         H         0.0255    0.835     0.3154    H         
         C         0.31104   0.42352   0.21928   C         
         C         0.68896   0.57648   0.21928   C         
         C         0.57648   0.31104   0.21928   C         
         C         0.42352   0.68896   0.21928   C         
         C         0.81104   0.92352   0.71928   C         
         C         0.18896   0.07648   0.71928   C         
         C         0.07648   0.81104   0.71928   C         
         C         0.92352   0.18896   0.71928   C         
         C         0.68896   0.57648   0.78072   C         
         C         0.31104   0.42352   0.78072   C         
         C         0.42352   0.68896   0.78072   C         
         C         0.57648   0.31104   0.78072   C         
         C         0.18896   0.07648   0.28072   C         
         C         0.81104   0.92352   0.28072   C         
         C         0.92352   0.18896   0.28072   C         
         C         0.07648   0.81104   0.28072   C         
         C         0.2838    0.41698   0.24987   C         
         C         0.7162    0.58302   0.24987   C         
         C         0.58302   0.2838    0.24987   C         
         C         0.41698   0.7162    0.24987   C         
         C         0.7838    0.91698   0.74987   C         
         C         0.2162    0.08302   0.74987   C         
         C         0.08302   0.7838    0.74987   C         
         C         0.91698   0.2162    0.74987   C         
         C         0.7162    0.58302   0.75013   C         
         C         0.2838    0.41698   0.75013   C         
         C         0.41698   0.7162    0.75013   C         
         C         0.58302   0.2838    0.75013   C         
         C         0.2162    0.08302   0.25013   C         
         C         0.7838    0.91698   0.25013   C         
         C         0.91698   0.2162    0.25013   C         
         C         0.08302   0.7838    0.25013   C         
         H         0.281     0.3854    0.2598    H         
         H         0.719     0.6146    0.2598    H         
         H         0.6146    0.281     0.2598    H         
         H         0.3854    0.719     0.2598    H         
         H         0.781     0.8854    0.7598    H         
         H         0.219     0.1146    0.7598    H         
         H         0.1146    0.781     0.7598    H         
         H         0.8854    0.219     0.7598    H         
         H         0.719     0.6146    0.7402    H         
         H         0.281     0.3854    0.7402    H         
         H         0.3854    0.719     0.7402    H         
         H         0.6146    0.281     0.7402    H         
         H         0.219     0.1146    0.2402    H         
         H         0.781     0.8854    0.2402    H         
         H         0.8854    0.219     0.2402    H         
         H         0.1146    0.781     0.2402    H         
         C         0.29623   0.56093   0.2034    C         
         C         0.70377   0.43907   0.2034    C         
         C         0.43907   0.29623   0.2034    C         
         C         0.56093   0.70377   0.2034    C         
         C         0.79623   0.06093   0.7034    C         
         C         0.20377   0.93907   0.7034    C         
         C         0.93907   0.79623   0.7034    C         
         C         0.06093   0.20377   0.7034    C         
         C         0.70377   0.43907   0.7966    C         
         C         0.29623   0.56093   0.7966    C         
         C         0.56093   0.70377   0.7966    C         
         C         0.43907   0.29623   0.7966    C         
         C         0.20377   0.93907   0.2966    C         
         C         0.79623   0.06093   0.2966    C         
         C         0.06093   0.20377   0.2966    C         
         C         0.93907   0.79623   0.2966    C         
         C         0.33239   0.37863   0.2016    C         
         C         0.66761   0.62137   0.2016    C         
         C         0.62137   0.33239   0.2016    C         
         C         0.37863   0.66761   0.2016    C         
         C         0.83239   0.87863   0.7016    C         
         C         0.16761   0.12137   0.7016    C         
         C         0.12137   0.83239   0.7016    C         
         C         0.87863   0.16761   0.7016    C         
         C         0.66761   0.62137   0.7984    C         
         C         0.33239   0.37863   0.7984    C         
         C         0.37863   0.66761   0.7984    C         
         C         0.62137   0.33239   0.7984    C         
         C         0.16761   0.12137   0.2984    C         
         C         0.83239   0.87863   0.2984    C         
         C         0.87863   0.16761   0.2984    C         
         C         0.12137   0.83239   0.2984    C         
         C         0.1051    0.41236   0.39192   C         
         C         0.8949    0.58764   0.39192   C         
         C         0.58764   0.1051    0.39192   C         
         C         0.41236   0.8949    0.39192   C         
         C         0.6051    0.91236   0.89192   C         
         C         0.3949    0.08764   0.89192   C         
         C         0.08764   0.6051    0.89192   C         
         C         0.91236   0.3949    0.89192   C         
         C         0.8949    0.58764   0.60808   C         
         C         0.1051    0.41236   0.60808   C         
         C         0.41236   0.8949    0.60808   C         
         C         0.58764   0.1051    0.60808   C         
         C         0.3949    0.08764   0.10808   C         
         C         0.6051    0.91236   0.10808   C         
         C         0.91236   0.3949    0.10808   C         
         C         0.08764   0.6051    0.10808   C         
         C         0.1219    0.37131   0.3731    C         
         C         0.8781    0.62869   0.3731    C         
         C         0.62869   0.1219    0.3731    C         
         C         0.37131   0.8781    0.3731    C         
         C         0.6219    0.87131   0.8731    C         
         C         0.3781    0.12869   0.8731    C         
         C         0.12869   0.6219    0.8731    C         
         C         0.87131   0.3781    0.8731    C         
         C         0.8781    0.62869   0.6269    C         
         C         0.1219    0.37131   0.6269    C         
         C         0.37131   0.8781    0.6269    C         
         C         0.62869   0.1219    0.6269    C         
         C         0.3781    0.12869   0.1269    C         
         C         0.6219    0.87131   0.1269    C         
         C         0.87131   0.3781    0.1269    C         
         C         0.12869   0.6219    0.1269    C         
         H         0.1453    0.3754    0.3551    H         
         H         0.8547    0.6246    0.3551    H         
         H         0.6246    0.1453    0.3551    H         
         H         0.3754    0.8547    0.3551    H         
         H         0.6453    0.8754    0.8551    H         
         H         0.3547    0.1246    0.8551    H         
         H         0.1246    0.6453    0.8551    H         
         H         0.8754    0.3547    0.8551    H         
         H         0.8547    0.6246    0.6449    H         
         H         0.1453    0.3754    0.6449    H         
         H         0.3754    0.8547    0.6449    H         
         H         0.6246    0.1453    0.6449    H         
         H         0.3547    0.1246    0.1449    H         
         H         0.6453    0.8754    0.1449    H         
         H         0.8754    0.3547    0.1449    H         
         H         0.1246    0.6453    0.1449    H         
         C         0.10382   0.32417   0.38107   C         
         C         0.89618   0.67583   0.38107   C         
         C         0.67583   0.10382   0.38107   C         
         C         0.32417   0.89618   0.38107   C         
         C         0.60382   0.82417   0.88107   C         
         C         0.39618   0.17583   0.88107   C         
         C         0.17583   0.60382   0.88107   C         
         C         0.82417   0.39618   0.88107   C         
         C         0.89618   0.67583   0.61893   C         
         C         0.10382   0.32417   0.61893   C         
         C         0.32417   0.89618   0.61893   C         
         C         0.67583   0.10382   0.61893   C         
         C         0.39618   0.17583   0.11893   C         
         C         0.60382   0.82417   0.11893   C         
         C         0.82417   0.39618   0.11893   C         
         C         0.17583   0.60382   0.11893   C         
         C         0.06762   0.31779   0.40768   C         
         C         0.93238   0.68221   0.40768   C         
         C         0.68221   0.06762   0.40768   C         
         C         0.31779   0.93238   0.40768   C         
         C         0.56762   0.81779   0.90768   C         
         C         0.43238   0.18221   0.90768   C         
         C         0.18221   0.56762   0.90768   C         
         C         0.81779   0.43238   0.90768   C         
         C         0.93238   0.68221   0.59232   C         
         C         0.06762   0.31779   0.59232   C         
         C         0.31779   0.93238   0.59232   C         
         C         0.68221   0.06762   0.59232   C         
         C         0.43238   0.18221   0.09232   C         
         C         0.56762   0.81779   0.09232   C         
         C         0.81779   0.43238   0.09232   C         
         C         0.18221   0.56762   0.09232   C         
         H         0.0554    0.2863    0.4131    H         
         H         0.9446    0.7137    0.4131    H         
         H         0.7137    0.0554    0.4131    H         
         H         0.2863    0.9446    0.4131    H         
         H         0.5554    0.7863    0.9131    H         
         H         0.4446    0.2137    0.9131    H         
         H         0.2137    0.5554    0.9131    H         
         H         0.7863    0.4446    0.9131    H         
         H         0.9446    0.7137    0.5869    H         
         H         0.0554    0.2863    0.5869    H         
         H         0.2863    0.9446    0.5869    H         
         H         0.7137    0.0554    0.5869    H         
         H         0.4446    0.2137    0.0869    H         
         H         0.5554    0.7863    0.0869    H         
         H         0.7863    0.4446    0.0869    H         
         H         0.2137    0.5554    0.0869    H         
         C         0.05046   0.35954   0.42575   C         
         C         0.94954   0.64046   0.42575   C         
         C         0.64046   0.05046   0.42575   C         
         C         0.35954   0.94954   0.42575   C         
         C         0.55046   0.85954   0.92575   C         
         C         0.44954   0.14046   0.92575   C         
         C         0.14046   0.55046   0.92575   C         
         C         0.85954   0.44954   0.92575   C         
         C         0.94954   0.64046   0.57425   C         
         C         0.05046   0.35954   0.57425   C         
         C         0.35954   0.94954   0.57425   C         
         C         0.64046   0.05046   0.57425   C         
         C         0.44954   0.14046   0.07425   C         
         C         0.55046   0.85954   0.07425   C         
         C         0.85954   0.44954   0.07425   C         
         C         0.14046   0.55046   0.07425   C         
         C         0.0694    0.40593   0.41827   C         
         C         0.9306    0.59407   0.41827   C         
         C         0.59407   0.0694    0.41827   C         
         C         0.40593   0.9306    0.41827   C         
         C         0.5694    0.90593   0.91827   C         
         C         0.4306    0.09407   0.91827   C         
         C         0.09407   0.5694    0.91827   C         
         C         0.90593   0.4306    0.91827   C         
         C         0.9306    0.59407   0.58173   C         
         C         0.0694    0.40593   0.58173   C         
         C         0.40593   0.9306    0.58173   C         
         C         0.59407   0.0694    0.58173   C         
         C         0.4306    0.09407   0.08173   C         
         C         0.5694    0.90593   0.08173   C         
         C         0.90593   0.4306    0.08173   C         
         C         0.09407   0.5694    0.08173   C         
         H         0.0582    0.4334    0.431     H         
         H         0.9418    0.5666    0.431     H         
         H         0.5666    0.0582    0.431     H         
         H         0.4334    0.9418    0.431     H         
         H         0.5582    0.9334    0.931     H         
         H         0.4418    0.0666    0.931     H         
         H         0.0666    0.5582    0.931     H         
         H         0.9334    0.4418    0.931     H         
         H         0.9418    0.5666    0.569     H         
         H         0.0582    0.4334    0.569     H         
         H         0.4334    0.9418    0.569     H         
         H         0.5666    0.0582    0.569     H         
         H         0.4418    0.0666    0.069     H         
         H         0.5582    0.9334    0.069     H         
         H         0.9334    0.4418    0.069     H         
         H         0.0666    0.5582    0.069     H         
         C         0.11976   0.27957   0.361     C         
         C         0.88024   0.72043   0.361     C         
         C         0.72043   0.11976   0.361     C         
         C         0.27957   0.88024   0.361     C         
         C         0.61976   0.77957   0.861     C         
         C         0.38024   0.22043   0.861     C         
         C         0.22043   0.61976   0.861     C         
         C         0.77957   0.38024   0.861     C         
         C         0.88024   0.72043   0.639     C         
         C         0.11976   0.27957   0.639     C         
         C         0.27957   0.88024   0.639     C         
         C         0.72043   0.11976   0.639     C         
         C         0.38024   0.22043   0.139     C         
         C         0.61976   0.77957   0.139     C         
         C         0.77957   0.38024   0.139     C         
         C         0.22043   0.61976   0.139     C         
         C         0.01147   0.35277   0.45323   C         
         C         0.98853   0.64723   0.45323   C         
         C         0.64723   0.01147   0.45323   C         
         C         0.35277   0.98853   0.45323   C         
         C         0.51147   0.85277   0.95323   C         
         C         0.48853   0.14723   0.95323   C         
         C         0.14723   0.51147   0.95323   C         
         C         0.85277   0.48853   0.95323   C         
         C         0.98853   0.64723   0.54677   C         
         C         0.01147   0.35277   0.54677   C         
         C         0.35277   0.98853   0.54677   C         
         C         0.64723   0.01147   0.54677   C         
         C         0.48853   0.14723   0.04677   C         
         C         0.51147   0.85277   0.04677   C         
         C         0.85277   0.48853   0.04677   C         
         C         0.14723   0.51147   0.04677   C 
